McPAT (version 1.3 of Feb, 2015) is computing the target processor...
 

McPAT (version 1.3 of Feb, 2015) results  (current print level is 5)
*****************************************************************************************
  Technology 45 nm
  Using Long Channel Devices When Appropriate
  Interconnect metal projection= aggressive interconnect technology projection
  Core clock Rate(MHz) 3400

*****************************************************************************************
Processor: 
  Area = 167.09 mm^2
  Peak Power = 136.322 W
  Total Leakage = 26.5688 W
  Peak Dynamic = 109.754 W
  Subthreshold Leakage = 24.3222 W
  Subthreshold Leakage with power gating = 11.2888 W
  Gate Leakage = 2.24658 W
  Runtime Dynamic = 74.7487 W

  Total Cores: 4 cores 
  Device Type= ITRS high performance device type
    Area = 76.6121 mm^2
    Peak Dynamic = 39.3718 W
    Subthreshold Leakage = 15.9974 W
    Subthreshold Leakage with power gating = 7.26393 W
    Gate Leakage = 1.24698 W
    Runtime Dynamic = 41.4897 W

  Total L2s: 
  Device Type= ITRS high performance device type
    Area = 30.7616 mm^2
    Peak Dynamic = 10.3249 W
    Subthreshold Leakage = 2.46106 W
    Subthreshold Leakage with power gating = 1.40051 W
    Gate Leakage = 0.0394747 W
    Runtime Dynamic = 3.00153 W

  Total First Level Directory: 
  Device Type= ITRS high performance device type
    Area = 2.35074 mm^2
    Peak Dynamic = 6.49839 W
    Subthreshold Leakage = 0.166429 W
    Subthreshold Leakage with power gating = 0.0748931 W
    Gate Leakage = 0.0296647 W
    Runtime Dynamic = 13.0546 W

  Total NoCs (Network/Bus): 
  Device Type= ITRS high performance device type
    Area = 14.7407 mm^2
    Peak Dynamic = 46.624 W
    Subthreshold Leakage = 4.27901 W
    Subthreshold Leakage with power gating = 1.91074 W
    Gate Leakage = 0.608796 W
    Runtime Dynamic = 2.914 W

  Total MCs: 4 Memory Controllers 
  Device Type= ITRS high performance device type
    Area = 22.2144 mm^2
    Peak Dynamic = 3.90557 W
    Subthreshold Leakage = 0.535477 W
    Subthreshold Leakage with power gating = 0.241495 W
    Gate Leakage = 0.0580031 W
    Runtime Dynamic = 12.1686 W

  Total NIUs: 4 Network Interface Units 
  Device Type= ITRS high performance device type
    Area = 16.6974 mm^2
    Peak Dynamic = 2.16692 W
    Subthreshold Leakage = 0.679449 W
    Subthreshold Leakage with power gating = 0.305752 W
    Gate Leakage = 0.202921 W
    Runtime Dynamic = 1.51684 W

  Total PCIes: 1 PCIe Controllers 
  Device Type= ITRS high performance device type
    Area = 3.7129 mm^2
    Peak Dynamic = 0.862065 W
    Subthreshold Leakage = 0.203374 W
    Subthreshold Leakage with power gating = 0.0915182 W
    Gate Leakage = 0.0607388 W
    Runtime Dynamic = 0.603445 W

*****************************************************************************************
Core:
      Area = 18.1742 mm^2
      Peak Dynamic = 15.2184 W
      Subthreshold Leakage = 3.99238 W
      Subthreshold Leakage with power gating = 1.81218 W
      Gate Leakage = 0.31147 W
      Runtime Dynamic = 15.2802 W

      Instruction Fetch Unit:
        Area = 3.03328 mm^2
        Peak Dynamic = 3.22463 W
        Subthreshold Leakage = 0.470135 W
        Subthreshold Leakage with power gating = 0.223463 W
        Gate Leakage = 0.0313269 W
        Runtime Dynamic = 2.70017 W

          Instruction Cache:
            Area = 0.188652 mm^2
            Peak Dynamic = 0.313151 W
            Subthreshold Leakage = 0.0268005 W
            Subthreshold Leakage with power gating = 0.0139863 W
            Gate Leakage = 0.00149684 W
            Runtime Dynamic = 0.103467 W

          Branch Target Buffer:
            Area = 0.567865 mm^2
            Peak Dynamic = 0.103281 W
            Subthreshold Leakage = 0.0453364 W
            Subthreshold Leakage with power gating = 0.0260239 W
            Gate Leakage = 0.00241229 W
            Runtime Dynamic = 0.413124 W

          Branch Predictor:
            Area = 0.264558 mm^2
            Peak Dynamic = 0.0971754 W
            Subthreshold Leakage = 0.0293437 W
            Subthreshold Leakage with power gating = 0.0171744 W
            Gate Leakage = 0.00127496 W
            Runtime Dynamic = 0.0961118 W

              Global Predictor:
                Area = 0.0888183 mm^2
                Peak Dynamic = 0.0324183 W
                Subthreshold Leakage = 0.0111966 W
                Subthreshold Leakage with power gating = 0.00651863 W
                Gate Leakage = 0.000465972 W
                Runtime Dynamic = 0.0344943 W

              Local Predictor:
              L1_Local Predictor:
                Area = 0.040494 mm^2
                Peak Dynamic = 0.014455 W
                Subthreshold Leakage = 0.00369071 W
                Subthreshold Leakage with power gating = 0.00221507 W
                Gate Leakage = 0.000173984 W
                Runtime Dynamic = 0.0162694 W

              L2_Local Predictor:
                Area = 0.0312562 mm^2
                Peak Dynamic = 0.00964261 W
                Subthreshold Leakage = 0.00250118 W
                Subthreshold Leakage with power gating = 0.00149506 W
                Gate Leakage = 0.000120424 W
                Runtime Dynamic = 0.0108528 W

              Chooser:
                Area = 0.0888183 mm^2
                Peak Dynamic = 0.0324183 W
                Subthreshold Leakage = 0.0111966 W
                Subthreshold Leakage with power gating = 0.00651863 W
                Gate Leakage = 0.000465972 W
                Runtime Dynamic = 0.0344943 W

              RAS:
                Area = 0.0151711 mm^2
                Peak Dynamic = 0.00824119 W
                Subthreshold Leakage = 0.000758626 W
                Subthreshold Leakage with power gating = 0.000427032 W
                Gate Leakage = 4.8608e-05 W
                Runtime Dynamic = 1.11415e-06 W

          Instruction Buffer:
            Area = 0.0327612 mm^2
            Peak Dynamic = 0.73284 W
            Subthreshold Leakage = 0.00348369 W
            Subthreshold Leakage with power gating = 0.00195162 W
            Gate Leakage = 0.000156864 W
            Runtime Dynamic = 0.48856 W

          Instruction Decoder:
            Area = 1.85799 mm^2
            Peak Dynamic = 1.21964 W
            Subthreshold Leakage = 0.325606 W
            Subthreshold Leakage with power gating = 0.146523 W
            Gate Leakage = 0.0185411 W
            Runtime Dynamic = 1.21964 W

      Renaming Unit:
        Area = 0.204589 mm^2
        Peak Dynamic = 1.47859 W
        Subthreshold Leakage = 0.0408491 W
        Subthreshold Leakage with power gating = 0.0185411 W
        Gate Leakage = 0.00753983 W
        Runtime Dynamic = 1.00298 W

          Int Front End RAT with 1 internal checkpoints:
            Area = 0.0263034 mm^2
            Peak Dynamic = 0.445601 W
            Subthreshold Leakage = 0.000339947 W
            Subthreshold Leakage with power gating = 0.000192711 W
            Gate Leakage = 2.36369e-05 W
            Runtime Dynamic = 0.442213 W

          FP Front End RAT with 1 internal checkpoints:
            Area = 0.01653 mm^2
            Peak Dynamic = 0.215586 W
            Subthreshold Leakage = 0.000379531 W
            Subthreshold Leakage with power gating = 0.000220297 W
            Gate Leakage = 2.94505e-05 W
            Runtime Dynamic = 0.10642 W

          Free List:
            Area = 0.0249893 mm^2
            Peak Dynamic = 0.0356219 W
            Subthreshold Leakage = 0.000329119 W
            Subthreshold Leakage with power gating = 0.000191072 W
            Gate Leakage = 2.06056e-05 W
            Runtime Dynamic = 0.0643339 W

          FP Free List:
            Area = 0.0153103 mm^2
            Peak Dynamic = 0.023251 W
            Subthreshold Leakage = 0.000235515 W
            Subthreshold Leakage with power gating = 0.000132764 W
            Gate Leakage = 2.13214e-05 W
            Runtime Dynamic = 0.0107482 W

      Load Store Unit:
        Area = 1.40987 mm^2
        Peak Dynamic = 1.89652 W
        Subthreshold Leakage = 0.1416 W
        Subthreshold Leakage with power gating = 0.0661197 W
        Gate Leakage = 0.0142391 W
        Runtime Dynamic = 1.42234 W

          Data Cache:
            Area = 0.558057 mm^2
            Peak Dynamic = 0.730769 W
            Subthreshold Leakage = 0.0605993 W
            Subthreshold Leakage with power gating = 0.0296694 W
            Gate Leakage = 0.00382751 W
            Runtime Dynamic = 0.642842 W

          LoadQ:
            Area = 0.306614 mm^2
            Peak Dynamic = 0.393245 W
            Subthreshold Leakage = 0.0207179 W
            Subthreshold Leakage with power gating = 0.00932306 W
            Gate Leakage = 0.00148341 W
            Runtime Dynamic = 0.196622 W

          StoreQ:
            Area = 0.306614 mm^2
            Peak Dynamic = 0.393245 W
            Subthreshold Leakage = 0.0207179 W
            Subthreshold Leakage with power gating = 0.00932306 W
            Gate Leakage = 0.00148341 W
            Runtime Dynamic = 0.393245 W

      Memory Management Unit:
        Area = 0.3725 mm^2
        Peak Dynamic = 0.826132 W
        Subthreshold Leakage = 0.0602676 W
        Subthreshold Leakage with power gating = 0.0271204 W
        Runtime Dynamic = 1.08905 W

          Itlb:
            Area = 0.0610812 mm^2
            Peak Dynamic = 0.112168 W
            Subthreshold Leakage = 0.00702277 W
            Subthreshold Leakage with power gating = 0.00316025 W
            Gate Leakage = 0.000468934 W
            Runtime Dynamic = 0.224339 W

          Dtlb:
            Area = 0.189963 mm^2
            Peak Dynamic = 0.145064 W
            Subthreshold Leakage = 0.0136798 W
            Subthreshold Leakage with power gating = 0.00615592 W
            Gate Leakage = 0.000931034 W
            Runtime Dynamic = 0.580259 W

      Execution Unit:
        Area = 6.80327 mm^2
        Peak Dynamic = 7.79253 W
        Subthreshold Leakage = 1.28567 W
        Subthreshold Leakage with power gating = 0.579694 W
        Runtime Dynamic = 9.06563 W

          Register Files:
            Area = 0.783287 mm^2
            Peak Dynamic = 1.18321 W
            Subthreshold Leakage = 0.0103747 W
            Subthreshold Leakage with power gating = 0.00541438 W
            Gate Leakage = 0.000643269 W
            Runtime Dynamic = 0.573229 W

              Integer RF:
                Area = 0.563577 mm^2
                Peak Dynamic = 1.01608 W
                Subthreshold Leakage = 0.00718645 W
                Subthreshold Leakage with power gating = 0.00379517 W
                Gate Leakage = 0.000438902 W
                Runtime Dynamic = 0.519502 W

              Floating Point RF:
                Area = 0.21971 mm^2
                Peak Dynamic = 0.167131 W
                Subthreshold Leakage = 0.0031883 W
                Subthreshold Leakage with power gating = 0.00161922 W
                Gate Leakage = 0.000204367 W
                Runtime Dynamic = 0.0537276 W

          Instruction Scheduler:
            Area = 0.502483 mm^2
            Peak Dynamic = 1.09276 W
            Subthreshold Leakage = 0.0137754 W
            Subthreshold Leakage with power gating = 0.0065978 W
            Gate Leakage = 0.000981986 W
            Runtime Dynamic = 1.26073 W

              Instruction Window:
                Area = 0.117449 mm^2
                Peak Dynamic = 0.342719 W
                Subthreshold Leakage = 0.00514209 W
                Subthreshold Leakage with power gating = 0.00231394 W
                Gate Leakage = 0.000406754 W
                Runtime Dynamic = 0.443167 W

              FP Instruction Window:
                Area = 0.0593215 mm^2
                Peak Dynamic = 0.223061 W
                Subthreshold Leakage = 0.00388967 W
                Subthreshold Leakage with power gating = 0.00175035 W
                Gate Leakage = 0.000296887 W
                Runtime Dynamic = 0.290575 W

              ROB:
                Area = 0.325712 mm^2
                Peak Dynamic = 0.526984 W
                Subthreshold Leakage = 0.00474362 W
                Subthreshold Leakage with power gating = 0.00253351 W
                Gate Leakage = 0.000278345 W
                Runtime Dynamic = 0.526984 W

          Integer ALUs (Count: 6 ):
            Area = 0.47087 mm^2
            Peak Dynamic = 2.04626 W
            Subthreshold Leakage = 0.295671 W
            Subthreshold Leakage with power gating = 0.133052 W
            Gate Leakage = 0.0221076 W
            Runtime Dynamic = 1.05832 W

          Floating Point Units (FPUs) (Count: 2 ):
            Area = 4.6585 mm^2
            Peak Dynamic = 0.656104 W
            Subthreshold Leakage = 0.731296 W
            Subthreshold Leakage with power gating = 0.329083 W
            Gate Leakage = 0.0546797 W
            Runtime Dynamic = 1.19907 W

          Complex ALUs (Mul/Div) (Count: 1 ):
            Area = 0.235435 mm^2
            Peak Dynamic = 0.239815 W
            Subthreshold Leakage = 0.147835 W
            Subthreshold Leakage with power gating = 0.066526 W
            Gate Leakage = 0.0110538 W
            Runtime Dynamic = 1.45801 W

          Results Broadcast Bus:
            Area Overhead = 0.0312345 mm^2
            Peak Dynamic = 1.81585 W
            Subthreshold Leakage = 0.0471472 W
            Subthreshold Leakage with power gating = 0.0212163 W
            Gate Leakage = 0.00352524 W
            Runtime Dynamic = 3.13701 W

*****************************************************************************************
Core:
      Area = 19.4793 mm^2
      Peak Dynamic = 8.05112 W
      Subthreshold Leakage = 4.00169 W
      Subthreshold Leakage with power gating = 1.81725 W
      Gate Leakage = 0.311836 W
      Runtime Dynamic = 8.73649 W

      Instruction Fetch Unit:
        Area = 2.94498 mm^2
        Peak Dynamic = 1.4487 W
        Subthreshold Leakage = 0.449326 W
        Subthreshold Leakage with power gating = 0.211887 W
        Gate Leakage = 0.0299061 W
        Runtime Dynamic = 1.35829 W

          Instruction Cache:
            Area = 0.188652 mm^2
            Peak Dynamic = 0.147365 W
            Subthreshold Leakage = 0.0268005 W
            Subthreshold Leakage with power gating = 0.0139863 W
            Gate Leakage = 0.00149684 W
            Runtime Dynamic = 0.0486906 W

          Branch Target Buffer:
            Area = 0.478297 mm^2
            Peak Dynamic = 0.0351366 W
            Subthreshold Leakage = 0.0252612 W
            Subthreshold Leakage with power gating = 0.0148829 W
            Gate Leakage = 0.000985866 W
            Runtime Dynamic = 0.140546 W

          Branch Predictor:
            Area = 0.27117 mm^2
            Peak Dynamic = 0.0469229 W
            Subthreshold Leakage = 0.029956 W
            Subthreshold Leakage with power gating = 0.0175425 W
            Gate Leakage = 0.00130366 W
            Runtime Dynamic = 0.0452292 W

              Global Predictor:
                Area = 0.0888183 mm^2
                Peak Dynamic = 0.0152557 W
                Subthreshold Leakage = 0.0111966 W
                Subthreshold Leakage with power gating = 0.00651863 W
                Gate Leakage = 0.000465972 W
                Runtime Dynamic = 0.0162326 W

              Local Predictor:
              L1_Local Predictor:
                Area = 0.040494 mm^2
                Peak Dynamic = 0.00680238 W
                Subthreshold Leakage = 0.00369071 W
                Subthreshold Leakage with power gating = 0.00221507 W
                Gate Leakage = 0.000173984 W
                Runtime Dynamic = 0.0076562 W

              L2_Local Predictor:
                Area = 0.0312562 mm^2
                Peak Dynamic = 0.0045377 W
                Subthreshold Leakage = 0.00250118 W
                Subthreshold Leakage with power gating = 0.00149506 W
                Gate Leakage = 0.000120424 W
                Runtime Dynamic = 0.00510719 W

              Chooser:
                Area = 0.0888183 mm^2
                Peak Dynamic = 0.0152557 W
                Subthreshold Leakage = 0.0111966 W
                Subthreshold Leakage with power gating = 0.00651863 W
                Gate Leakage = 0.000465972 W
                Runtime Dynamic = 0.0162326 W

              RAS:
                Area = 0.0217831 mm^2
                Peak Dynamic = 0.0050715 W
                Subthreshold Leakage = 0.00137096 W
                Subthreshold Leakage with power gating = 0.000795137 W
                Gate Leakage = 7.73097e-05 W
                Runtime Dynamic = 6.41761e-07 W

          Instruction Buffer:
            Area = 0.0267334 mm^2
            Peak Dynamic = 0.28636 W
            Subthreshold Leakage = 0.00191408 W
            Subthreshold Leakage with power gating = 0.00104809 W
            Gate Leakage = 9.18917e-05 W
            Runtime Dynamic = 0.190907 W

          Instruction Decoder:
            Area = 1.85799 mm^2
            Peak Dynamic = 0.573951 W
            Subthreshold Leakage = 0.325606 W
            Subthreshold Leakage with power gating = 0.146523 W
            Gate Leakage = 0.0185411 W
            Runtime Dynamic = 0.573951 W

      Renaming Unit:
        Area = 0.261116 mm^2
        Peak Dynamic = 0.730748 W
        Subthreshold Leakage = 0.0422371 W
        Subthreshold Leakage with power gating = 0.0193369 W
        Gate Leakage = 0.00764265 W
        Runtime Dynamic = 0.68639 W

          Int Front End RAT with 1 internal checkpoints:
            Area = 0.0263034 mm^2
            Peak Dynamic = 0.214146 W
            Subthreshold Leakage = 0.000339947 W
            Subthreshold Leakage with power gating = 0.000192711 W
            Gate Leakage = 2.36369e-05 W
            Runtime Dynamic = 0.212551 W

          FP Front End RAT with 1 internal checkpoints:
            Area = 0.01653 mm^2
            Peak Dynamic = 0.105984 W
            Subthreshold Leakage = 0.000379531 W
            Subthreshold Leakage with power gating = 0.000220297 W
            Gate Leakage = 2.94505e-05 W
            Runtime Dynamic = 0.0523457 W

          Free List:
            Area = 0.0646288 mm^2
            Peak Dynamic = 0.029334 W
            Subthreshold Leakage = 0.00108082 W
            Subthreshold Leakage with power gating = 0.000628039 W
            Gate Leakage = 6.20754e-05 W
            Runtime Dynamic = 0.0525384 W

          FP Free List:
            Area = 0.0315135 mm^2
            Peak Dynamic = 0.0223196 W
            Subthreshold Leakage = 0.000649101 W
            Subthreshold Leakage with power gating = 0.000391421 W
            Gate Leakage = 4.07677e-05 W
            Runtime Dynamic = 0.0099891 W

      Load Store Unit:
        Area = 1.42033 mm^2
        Peak Dynamic = 0.91382 W
        Subthreshold Leakage = 0.143168 W
        Subthreshold Leakage with power gating = 0.0668252 W
        Gate Leakage = 0.0143726 W
        Runtime Dynamic = 0.785041 W

          Data Cache:
            Area = 0.558057 mm^2
            Peak Dynamic = 0.343891 W
            Subthreshold Leakage = 0.0605993 W
            Subthreshold Leakage with power gating = 0.0296694 W
            Gate Leakage = 0.00382751 W
            Runtime Dynamic = 0.302514 W

          LoadQ:
            Area = 0.290994 mm^2
            Peak Dynamic = 0.174802 W
            Subthreshold Leakage = 0.0195882 W
            Subthreshold Leakage with power gating = 0.00881469 W
            Gate Leakage = 0.00143197 W
            Runtime Dynamic = 0.0874011 W

          StoreQ:
            Area = 0.331123 mm^2
            Peak Dynamic = 0.215644 W
            Subthreshold Leakage = 0.0231925 W
            Subthreshold Leakage with power gating = 0.0104366 W
            Gate Leakage = 0.00162641 W
            Runtime Dynamic = 0.215644 W

      Memory Management Unit:
        Area = 0.373184 mm^2
        Peak Dynamic = 0.390275 W
        Subthreshold Leakage = 0.0604902 W
        Subthreshold Leakage with power gating = 0.0272206 W
        Runtime Dynamic = 0.647859 W

          Itlb:
            Area = 0.0610812 mm^2
            Peak Dynamic = 0.0527852 W
            Subthreshold Leakage = 0.00702277 W
            Subthreshold Leakage with power gating = 0.00316025 W
            Gate Leakage = 0.000468934 W
            Runtime Dynamic = 0.105571 W

          Dtlb:
            Area = 0.189963 mm^2
            Peak Dynamic = 0.0682654 W
            Subthreshold Leakage = 0.0136798 W
            Subthreshold Leakage with power gating = 0.00615592 W
            Gate Leakage = 0.000931034 W
            Runtime Dynamic = 0.273063 W

      Execution Unit:
        Area = 8.12904 mm^2
        Peak Dynamic = 4.56757 W
        Subthreshold Leakage = 1.3126 W
        Subthreshold Leakage with power gating = 0.594744 W
        Runtime Dynamic = 5.25891 W

          Register Files:
            Area = 1.97608 mm^2
            Peak Dynamic = 1.1197 W
            Subthreshold Leakage = 0.0281433 W
            Subthreshold Leakage with power gating = 0.0159111 W
            Gate Leakage = 0.00152872 W
            Runtime Dynamic = 0.53672 W

              Integer RF:
                Area = 1.32488 mm^2
                Peak Dynamic = 0.939852 W
                Subthreshold Leakage = 0.0170761 W
                Subthreshold Leakage with power gating = 0.00958028 W
                Gate Leakage = 0.000945269 W
                Runtime Dynamic = 0.47871 W

              Floating Point RF:
                Area = 0.651207 mm^2
                Peak Dynamic = 0.179851 W
                Subthreshold Leakage = 0.0110673 W
                Subthreshold Leakage with power gating = 0.0063308 W
                Gate Leakage = 0.000583452 W
                Runtime Dynamic = 0.0580106 W

          Instruction Scheduler:
            Area = 0.631419 mm^2
            Peak Dynamic = 0.665136 W
            Subthreshold Leakage = 0.0175096 W
            Subthreshold Leakage with power gating = 0.00870619 W
            Gate Leakage = 0.00117352 W
            Runtime Dynamic = 0.762822 W

              Instruction Window:
                Area = 0.139517 mm^2
                Peak Dynamic = 0.216363 W
                Subthreshold Leakage = 0.00587862 W
                Subthreshold Leakage with power gating = 0.00264538 W
                Gate Leakage = 0.000455221 W
                Runtime Dynamic = 0.279034 W

              FP Instruction Window:
                Area = 0.0648348 mm^2
                Peak Dynamic = 0.129028 W
                Subthreshold Leakage = 0.00444426 W
                Subthreshold Leakage with power gating = 0.00199992 W
                Gate Leakage = 0.000345067 W
                Runtime Dynamic = 0.164044 W

              ROB:
                Area = 0.427067 mm^2
                Peak Dynamic = 0.319745 W
                Subthreshold Leakage = 0.00718668 W
                Subthreshold Leakage with power gating = 0.00406089 W
                Gate Leakage = 0.000373232 W
                Runtime Dynamic = 0.319745 W

          Integer ALUs (Count: 6 ):
            Area = 0.47087 mm^2
            Peak Dynamic = 1.0002 W
            Subthreshold Leakage = 0.295671 W
            Subthreshold Leakage with power gating = 0.133052 W
            Gate Leakage = 0.0221076 W
            Runtime Dynamic = 0.535291 W

          Floating Point Units (FPUs) (Count: 2 ):
            Area = 4.6585 mm^2
            Peak Dynamic = 0.342288 W
            Subthreshold Leakage = 0.731296 W
            Subthreshold Leakage with power gating = 0.329083 W
            Gate Leakage = 0.0546797 W
            Runtime Dynamic = 0.676047 W

          Complex ALUs (Mul/Div) (Count: 1 ):
            Area = 0.235435 mm^2
            Peak Dynamic = 0.135209 W
            Subthreshold Leakage = 0.147835 W
            Subthreshold Leakage with power gating = 0.066526 W
            Gate Leakage = 0.0110538 W
            Runtime Dynamic = 0.76064 W

          Results Broadcast Bus:
            Area Overhead = 0.0345939 mm^2
            Peak Dynamic = 0.946066 W
            Subthreshold Leakage = 0.0523579 W
            Subthreshold Leakage with power gating = 0.023561 W
            Gate Leakage = 0.00391484 W
            Runtime Dynamic = 1.62843 W

*****************************************************************************************
Core:
      Area = 19.4793 mm^2
      Peak Dynamic = 8.05112 W
      Subthreshold Leakage = 4.00169 W
      Subthreshold Leakage with power gating = 1.81725 W
      Gate Leakage = 0.311836 W
      Runtime Dynamic = 8.73649 W

      Instruction Fetch Unit:
        Area = 2.94498 mm^2
        Peak Dynamic = 1.4487 W
        Subthreshold Leakage = 0.449326 W
        Subthreshold Leakage with power gating = 0.211887 W
        Gate Leakage = 0.0299061 W
        Runtime Dynamic = 1.35829 W

          Instruction Cache:
            Area = 0.188652 mm^2
            Peak Dynamic = 0.147365 W
            Subthreshold Leakage = 0.0268005 W
            Subthreshold Leakage with power gating = 0.0139863 W
            Gate Leakage = 0.00149684 W
            Runtime Dynamic = 0.0486906 W

          Branch Target Buffer:
            Area = 0.478297 mm^2
            Peak Dynamic = 0.0351366 W
            Subthreshold Leakage = 0.0252612 W
            Subthreshold Leakage with power gating = 0.0148829 W
            Gate Leakage = 0.000985866 W
            Runtime Dynamic = 0.140546 W

          Branch Predictor:
            Area = 0.27117 mm^2
            Peak Dynamic = 0.0469229 W
            Subthreshold Leakage = 0.029956 W
            Subthreshold Leakage with power gating = 0.0175425 W
            Gate Leakage = 0.00130366 W
            Runtime Dynamic = 0.0452292 W

              Global Predictor:
                Area = 0.0888183 mm^2
                Peak Dynamic = 0.0152557 W
                Subthreshold Leakage = 0.0111966 W
                Subthreshold Leakage with power gating = 0.00651863 W
                Gate Leakage = 0.000465972 W
                Runtime Dynamic = 0.0162326 W

              Local Predictor:
              L1_Local Predictor:
                Area = 0.040494 mm^2
                Peak Dynamic = 0.00680238 W
                Subthreshold Leakage = 0.00369071 W
                Subthreshold Leakage with power gating = 0.00221507 W
                Gate Leakage = 0.000173984 W
                Runtime Dynamic = 0.0076562 W

              L2_Local Predictor:
                Area = 0.0312562 mm^2
                Peak Dynamic = 0.0045377 W
                Subthreshold Leakage = 0.00250118 W
                Subthreshold Leakage with power gating = 0.00149506 W
                Gate Leakage = 0.000120424 W
                Runtime Dynamic = 0.00510719 W

              Chooser:
                Area = 0.0888183 mm^2
                Peak Dynamic = 0.0152557 W
                Subthreshold Leakage = 0.0111966 W
                Subthreshold Leakage with power gating = 0.00651863 W
                Gate Leakage = 0.000465972 W
                Runtime Dynamic = 0.0162326 W

              RAS:
                Area = 0.0217831 mm^2
                Peak Dynamic = 0.0050715 W
                Subthreshold Leakage = 0.00137096 W
                Subthreshold Leakage with power gating = 0.000795137 W
                Gate Leakage = 7.73097e-05 W
                Runtime Dynamic = 6.41761e-07 W

          Instruction Buffer:
            Area = 0.0267334 mm^2
            Peak Dynamic = 0.28636 W
            Subthreshold Leakage = 0.00191408 W
            Subthreshold Leakage with power gating = 0.00104809 W
            Gate Leakage = 9.18917e-05 W
            Runtime Dynamic = 0.190907 W

          Instruction Decoder:
            Area = 1.85799 mm^2
            Peak Dynamic = 0.573951 W
            Subthreshold Leakage = 0.325606 W
            Subthreshold Leakage with power gating = 0.146523 W
            Gate Leakage = 0.0185411 W
            Runtime Dynamic = 0.573951 W

      Renaming Unit:
        Area = 0.261116 mm^2
        Peak Dynamic = 0.730748 W
        Subthreshold Leakage = 0.0422371 W
        Subthreshold Leakage with power gating = 0.0193369 W
        Gate Leakage = 0.00764265 W
        Runtime Dynamic = 0.68639 W

          Int Front End RAT with 1 internal checkpoints:
            Area = 0.0263034 mm^2
            Peak Dynamic = 0.214146 W
            Subthreshold Leakage = 0.000339947 W
            Subthreshold Leakage with power gating = 0.000192711 W
            Gate Leakage = 2.36369e-05 W
            Runtime Dynamic = 0.212551 W

          FP Front End RAT with 1 internal checkpoints:
            Area = 0.01653 mm^2
            Peak Dynamic = 0.105984 W
            Subthreshold Leakage = 0.000379531 W
            Subthreshold Leakage with power gating = 0.000220297 W
            Gate Leakage = 2.94505e-05 W
            Runtime Dynamic = 0.0523457 W

          Free List:
            Area = 0.0646288 mm^2
            Peak Dynamic = 0.029334 W
            Subthreshold Leakage = 0.00108082 W
            Subthreshold Leakage with power gating = 0.000628039 W
            Gate Leakage = 6.20754e-05 W
            Runtime Dynamic = 0.0525384 W

          FP Free List:
            Area = 0.0315135 mm^2
            Peak Dynamic = 0.0223196 W
            Subthreshold Leakage = 0.000649101 W
            Subthreshold Leakage with power gating = 0.000391421 W
            Gate Leakage = 4.07677e-05 W
            Runtime Dynamic = 0.0099891 W

      Load Store Unit:
        Area = 1.42033 mm^2
        Peak Dynamic = 0.91382 W
        Subthreshold Leakage = 0.143168 W
        Subthreshold Leakage with power gating = 0.0668252 W
        Gate Leakage = 0.0143726 W
        Runtime Dynamic = 0.785041 W

          Data Cache:
            Area = 0.558057 mm^2
            Peak Dynamic = 0.343891 W
            Subthreshold Leakage = 0.0605993 W
            Subthreshold Leakage with power gating = 0.0296694 W
            Gate Leakage = 0.00382751 W
            Runtime Dynamic = 0.302514 W

          LoadQ:
            Area = 0.290994 mm^2
            Peak Dynamic = 0.174802 W
            Subthreshold Leakage = 0.0195882 W
            Subthreshold Leakage with power gating = 0.00881469 W
            Gate Leakage = 0.00143197 W
            Runtime Dynamic = 0.0874011 W

          StoreQ:
            Area = 0.331123 mm^2
            Peak Dynamic = 0.215644 W
            Subthreshold Leakage = 0.0231925 W
            Subthreshold Leakage with power gating = 0.0104366 W
            Gate Leakage = 0.00162641 W
            Runtime Dynamic = 0.215644 W

      Memory Management Unit:
        Area = 0.373184 mm^2
        Peak Dynamic = 0.390275 W
        Subthreshold Leakage = 0.0604902 W
        Subthreshold Leakage with power gating = 0.0272206 W
        Runtime Dynamic = 0.647859 W

          Itlb:
            Area = 0.0610812 mm^2
            Peak Dynamic = 0.0527852 W
            Subthreshold Leakage = 0.00702277 W
            Subthreshold Leakage with power gating = 0.00316025 W
            Gate Leakage = 0.000468934 W
            Runtime Dynamic = 0.105571 W

          Dtlb:
            Area = 0.189963 mm^2
            Peak Dynamic = 0.0682654 W
            Subthreshold Leakage = 0.0136798 W
            Subthreshold Leakage with power gating = 0.00615592 W
            Gate Leakage = 0.000931034 W
            Runtime Dynamic = 0.273063 W

      Execution Unit:
        Area = 8.12904 mm^2
        Peak Dynamic = 4.56757 W
        Subthreshold Leakage = 1.3126 W
        Subthreshold Leakage with power gating = 0.594744 W
        Runtime Dynamic = 5.25891 W

          Register Files:
            Area = 1.97608 mm^2
            Peak Dynamic = 1.1197 W
            Subthreshold Leakage = 0.0281433 W
            Subthreshold Leakage with power gating = 0.0159111 W
            Gate Leakage = 0.00152872 W
            Runtime Dynamic = 0.53672 W

              Integer RF:
                Area = 1.32488 mm^2
                Peak Dynamic = 0.939852 W
                Subthreshold Leakage = 0.0170761 W
                Subthreshold Leakage with power gating = 0.00958028 W
                Gate Leakage = 0.000945269 W
                Runtime Dynamic = 0.47871 W

              Floating Point RF:
                Area = 0.651207 mm^2
                Peak Dynamic = 0.179851 W
                Subthreshold Leakage = 0.0110673 W
                Subthreshold Leakage with power gating = 0.0063308 W
                Gate Leakage = 0.000583452 W
                Runtime Dynamic = 0.0580106 W

          Instruction Scheduler:
            Area = 0.631419 mm^2
            Peak Dynamic = 0.665136 W
            Subthreshold Leakage = 0.0175096 W
            Subthreshold Leakage with power gating = 0.00870619 W
            Gate Leakage = 0.00117352 W
            Runtime Dynamic = 0.762822 W

              Instruction Window:
                Area = 0.139517 mm^2
                Peak Dynamic = 0.216363 W
                Subthreshold Leakage = 0.00587862 W
                Subthreshold Leakage with power gating = 0.00264538 W
                Gate Leakage = 0.000455221 W
                Runtime Dynamic = 0.279034 W

              FP Instruction Window:
                Area = 0.0648348 mm^2
                Peak Dynamic = 0.129028 W
                Subthreshold Leakage = 0.00444426 W
                Subthreshold Leakage with power gating = 0.00199992 W
                Gate Leakage = 0.000345067 W
                Runtime Dynamic = 0.164044 W

              ROB:
                Area = 0.427067 mm^2
                Peak Dynamic = 0.319745 W
                Subthreshold Leakage = 0.00718668 W
                Subthreshold Leakage with power gating = 0.00406089 W
                Gate Leakage = 0.000373232 W
                Runtime Dynamic = 0.319745 W

          Integer ALUs (Count: 6 ):
            Area = 0.47087 mm^2
            Peak Dynamic = 1.0002 W
            Subthreshold Leakage = 0.295671 W
            Subthreshold Leakage with power gating = 0.133052 W
            Gate Leakage = 0.0221076 W
            Runtime Dynamic = 0.535291 W

          Floating Point Units (FPUs) (Count: 2 ):
            Area = 4.6585 mm^2
            Peak Dynamic = 0.342288 W
            Subthreshold Leakage = 0.731296 W
            Subthreshold Leakage with power gating = 0.329083 W
            Gate Leakage = 0.0546797 W
            Runtime Dynamic = 0.676047 W

          Complex ALUs (Mul/Div) (Count: 1 ):
            Area = 0.235435 mm^2
            Peak Dynamic = 0.135209 W
            Subthreshold Leakage = 0.147835 W
            Subthreshold Leakage with power gating = 0.066526 W
            Gate Leakage = 0.0110538 W
            Runtime Dynamic = 0.76064 W

          Results Broadcast Bus:
            Area Overhead = 0.0345939 mm^2
            Peak Dynamic = 0.946066 W
            Subthreshold Leakage = 0.0523579 W
            Subthreshold Leakage with power gating = 0.023561 W
            Gate Leakage = 0.00391484 W
            Runtime Dynamic = 1.62843 W

*****************************************************************************************
Core:
      Area = 19.4793 mm^2
      Peak Dynamic = 8.05112 W
      Subthreshold Leakage = 4.00169 W
      Subthreshold Leakage with power gating = 1.81725 W
      Gate Leakage = 0.311836 W
      Runtime Dynamic = 8.73649 W

      Instruction Fetch Unit:
        Area = 2.94498 mm^2
        Peak Dynamic = 1.4487 W
        Subthreshold Leakage = 0.449326 W
        Subthreshold Leakage with power gating = 0.211887 W
        Gate Leakage = 0.0299061 W
        Runtime Dynamic = 1.35829 W

          Instruction Cache:
            Area = 0.188652 mm^2
            Peak Dynamic = 0.147365 W
            Subthreshold Leakage = 0.0268005 W
            Subthreshold Leakage with power gating = 0.0139863 W
            Gate Leakage = 0.00149684 W
            Runtime Dynamic = 0.0486906 W

          Branch Target Buffer:
            Area = 0.478297 mm^2
            Peak Dynamic = 0.0351366 W
            Subthreshold Leakage = 0.0252612 W
            Subthreshold Leakage with power gating = 0.0148829 W
            Gate Leakage = 0.000985866 W
            Runtime Dynamic = 0.140546 W

          Branch Predictor:
            Area = 0.27117 mm^2
            Peak Dynamic = 0.0469229 W
            Subthreshold Leakage = 0.029956 W
            Subthreshold Leakage with power gating = 0.0175425 W
            Gate Leakage = 0.00130366 W
            Runtime Dynamic = 0.0452292 W

              Global Predictor:
                Area = 0.0888183 mm^2
                Peak Dynamic = 0.0152557 W
                Subthreshold Leakage = 0.0111966 W
                Subthreshold Leakage with power gating = 0.00651863 W
                Gate Leakage = 0.000465972 W
                Runtime Dynamic = 0.0162326 W

              Local Predictor:
              L1_Local Predictor:
                Area = 0.040494 mm^2
                Peak Dynamic = 0.00680238 W
                Subthreshold Leakage = 0.00369071 W
                Subthreshold Leakage with power gating = 0.00221507 W
                Gate Leakage = 0.000173984 W
                Runtime Dynamic = 0.0076562 W

              L2_Local Predictor:
                Area = 0.0312562 mm^2
                Peak Dynamic = 0.0045377 W
                Subthreshold Leakage = 0.00250118 W
                Subthreshold Leakage with power gating = 0.00149506 W
                Gate Leakage = 0.000120424 W
                Runtime Dynamic = 0.00510719 W

              Chooser:
                Area = 0.0888183 mm^2
                Peak Dynamic = 0.0152557 W
                Subthreshold Leakage = 0.0111966 W
                Subthreshold Leakage with power gating = 0.00651863 W
                Gate Leakage = 0.000465972 W
                Runtime Dynamic = 0.0162326 W

              RAS:
                Area = 0.0217831 mm^2
                Peak Dynamic = 0.0050715 W
                Subthreshold Leakage = 0.00137096 W
                Subthreshold Leakage with power gating = 0.000795137 W
                Gate Leakage = 7.73097e-05 W
                Runtime Dynamic = 6.41761e-07 W

          Instruction Buffer:
            Area = 0.0267334 mm^2
            Peak Dynamic = 0.28636 W
            Subthreshold Leakage = 0.00191408 W
            Subthreshold Leakage with power gating = 0.00104809 W
            Gate Leakage = 9.18917e-05 W
            Runtime Dynamic = 0.190907 W

          Instruction Decoder:
            Area = 1.85799 mm^2
            Peak Dynamic = 0.573951 W
            Subthreshold Leakage = 0.325606 W
            Subthreshold Leakage with power gating = 0.146523 W
            Gate Leakage = 0.0185411 W
            Runtime Dynamic = 0.573951 W

      Renaming Unit:
        Area = 0.261116 mm^2
        Peak Dynamic = 0.730748 W
        Subthreshold Leakage = 0.0422371 W
        Subthreshold Leakage with power gating = 0.0193369 W
        Gate Leakage = 0.00764265 W
        Runtime Dynamic = 0.68639 W

          Int Front End RAT with 1 internal checkpoints:
            Area = 0.0263034 mm^2
            Peak Dynamic = 0.214146 W
            Subthreshold Leakage = 0.000339947 W
            Subthreshold Leakage with power gating = 0.000192711 W
            Gate Leakage = 2.36369e-05 W
            Runtime Dynamic = 0.212551 W

          FP Front End RAT with 1 internal checkpoints:
            Area = 0.01653 mm^2
            Peak Dynamic = 0.105984 W
            Subthreshold Leakage = 0.000379531 W
            Subthreshold Leakage with power gating = 0.000220297 W
            Gate Leakage = 2.94505e-05 W
            Runtime Dynamic = 0.0523457 W

          Free List:
            Area = 0.0646288 mm^2
            Peak Dynamic = 0.029334 W
            Subthreshold Leakage = 0.00108082 W
            Subthreshold Leakage with power gating = 0.000628039 W
            Gate Leakage = 6.20754e-05 W
            Runtime Dynamic = 0.0525384 W

          FP Free List:
            Area = 0.0315135 mm^2
            Peak Dynamic = 0.0223196 W
            Subthreshold Leakage = 0.000649101 W
            Subthreshold Leakage with power gating = 0.000391421 W
            Gate Leakage = 4.07677e-05 W
            Runtime Dynamic = 0.0099891 W

      Load Store Unit:
        Area = 1.42033 mm^2
        Peak Dynamic = 0.91382 W
        Subthreshold Leakage = 0.143168 W
        Subthreshold Leakage with power gating = 0.0668252 W
        Gate Leakage = 0.0143726 W
        Runtime Dynamic = 0.785041 W

          Data Cache:
            Area = 0.558057 mm^2
            Peak Dynamic = 0.343891 W
            Subthreshold Leakage = 0.0605993 W
            Subthreshold Leakage with power gating = 0.0296694 W
            Gate Leakage = 0.00382751 W
            Runtime Dynamic = 0.302514 W

          LoadQ:
            Area = 0.290994 mm^2
            Peak Dynamic = 0.174802 W
            Subthreshold Leakage = 0.0195882 W
            Subthreshold Leakage with power gating = 0.00881469 W
            Gate Leakage = 0.00143197 W
            Runtime Dynamic = 0.0874011 W

          StoreQ:
            Area = 0.331123 mm^2
            Peak Dynamic = 0.215644 W
            Subthreshold Leakage = 0.0231925 W
            Subthreshold Leakage with power gating = 0.0104366 W
            Gate Leakage = 0.00162641 W
            Runtime Dynamic = 0.215644 W

      Memory Management Unit:
        Area = 0.373184 mm^2
        Peak Dynamic = 0.390275 W
        Subthreshold Leakage = 0.0604902 W
        Subthreshold Leakage with power gating = 0.0272206 W
        Runtime Dynamic = 0.647859 W

          Itlb:
            Area = 0.0610812 mm^2
            Peak Dynamic = 0.0527852 W
            Subthreshold Leakage = 0.00702277 W
            Subthreshold Leakage with power gating = 0.00316025 W
            Gate Leakage = 0.000468934 W
            Runtime Dynamic = 0.105571 W

          Dtlb:
            Area = 0.189963 mm^2
            Peak Dynamic = 0.0682654 W
            Subthreshold Leakage = 0.0136798 W
            Subthreshold Leakage with power gating = 0.00615592 W
            Gate Leakage = 0.000931034 W
            Runtime Dynamic = 0.273063 W

      Execution Unit:
        Area = 8.12904 mm^2
        Peak Dynamic = 4.56757 W
        Subthreshold Leakage = 1.3126 W
        Subthreshold Leakage with power gating = 0.594744 W
        Runtime Dynamic = 5.25891 W

          Register Files:
            Area = 1.97608 mm^2
            Peak Dynamic = 1.1197 W
            Subthreshold Leakage = 0.0281433 W
            Subthreshold Leakage with power gating = 0.0159111 W
            Gate Leakage = 0.00152872 W
            Runtime Dynamic = 0.53672 W

              Integer RF:
                Area = 1.32488 mm^2
                Peak Dynamic = 0.939852 W
                Subthreshold Leakage = 0.0170761 W
                Subthreshold Leakage with power gating = 0.00958028 W
                Gate Leakage = 0.000945269 W
                Runtime Dynamic = 0.47871 W

              Floating Point RF:
                Area = 0.651207 mm^2
                Peak Dynamic = 0.179851 W
                Subthreshold Leakage = 0.0110673 W
                Subthreshold Leakage with power gating = 0.0063308 W
                Gate Leakage = 0.000583452 W
                Runtime Dynamic = 0.0580106 W

          Instruction Scheduler:
            Area = 0.631419 mm^2
            Peak Dynamic = 0.665136 W
            Subthreshold Leakage = 0.0175096 W
            Subthreshold Leakage with power gating = 0.00870619 W
            Gate Leakage = 0.00117352 W
            Runtime Dynamic = 0.762822 W

              Instruction Window:
                Area = 0.139517 mm^2
                Peak Dynamic = 0.216363 W
                Subthreshold Leakage = 0.00587862 W
                Subthreshold Leakage with power gating = 0.00264538 W
                Gate Leakage = 0.000455221 W
                Runtime Dynamic = 0.279034 W

              FP Instruction Window:
                Area = 0.0648348 mm^2
                Peak Dynamic = 0.129028 W
                Subthreshold Leakage = 0.00444426 W
                Subthreshold Leakage with power gating = 0.00199992 W
                Gate Leakage = 0.000345067 W
                Runtime Dynamic = 0.164044 W

              ROB:
                Area = 0.427067 mm^2
                Peak Dynamic = 0.319745 W
                Subthreshold Leakage = 0.00718668 W
                Subthreshold Leakage with power gating = 0.00406089 W
                Gate Leakage = 0.000373232 W
                Runtime Dynamic = 0.319745 W

          Integer ALUs (Count: 6 ):
            Area = 0.47087 mm^2
            Peak Dynamic = 1.0002 W
            Subthreshold Leakage = 0.295671 W
            Subthreshold Leakage with power gating = 0.133052 W
            Gate Leakage = 0.0221076 W
            Runtime Dynamic = 0.535291 W

          Floating Point Units (FPUs) (Count: 2 ):
            Area = 4.6585 mm^2
            Peak Dynamic = 0.342288 W
            Subthreshold Leakage = 0.731296 W
            Subthreshold Leakage with power gating = 0.329083 W
            Gate Leakage = 0.0546797 W
            Runtime Dynamic = 0.676047 W

          Complex ALUs (Mul/Div) (Count: 1 ):
            Area = 0.235435 mm^2
            Peak Dynamic = 0.135209 W
            Subthreshold Leakage = 0.147835 W
            Subthreshold Leakage with power gating = 0.066526 W
            Gate Leakage = 0.0110538 W
            Runtime Dynamic = 0.76064 W

          Results Broadcast Bus:
            Area Overhead = 0.0345939 mm^2
            Peak Dynamic = 0.946066 W
            Subthreshold Leakage = 0.0523579 W
            Subthreshold Leakage with power gating = 0.023561 W
            Gate Leakage = 0.00391484 W
            Runtime Dynamic = 1.62843 W

*****************************************************************************************
L2
      Area = 7.69041 mm^2
      Peak Dynamic = 2.58122 W
      Subthreshold Leakage = 0.615265 W
      Subthreshold Leakage with power gating = 0.350128 W
      Gate Leakage = 0.00986868 W
      Runtime Dynamic = 3.00153 W

*****************************************************************************************
First Level Directory
      Area = 0.587684 mm^2
      Peak Dynamic = 1.6246 W
      Subthreshold Leakage = 0.0416073 W
      Subthreshold Leakage with power gating = 0.0187233 W
      Gate Leakage = 0.00741618 W
      Runtime Dynamic = 13.0546 W

*****************************************************************************************
Memory Controller:
      Area = 5.55361 mm^2
      Peak Dynamic = 0.976393 W
      Subthreshold Leakage = 0.133869 W
      Subthreshold Leakage with power gating = 0.0603737 W
      Gate Leakage = 0.0145008 W
      Runtime Dynamic = 12.1686 W

      Front End Engine:
        Area = 0.140479 mm^2
        Peak Dynamic = 0.0780875 W
        Subthreshold Leakage = 0.00528898 W
        Subthreshold Leakage with power gating = 0.00251264 W
        Gate Leakage = 0.0005226 W
        Runtime Dynamic = 0.916217 W

      Transaction Engine:
        Area = 1.84194 mm^2
        Peak Dynamic = 0.395474 W
        Subthreshold Leakage = 0.0437524 W
        Subthreshold Leakage with power gating = 0.0196886 W
        Gate Leakage = 0.0047564 W
        Runtime Dynamic = 4.64018 W

      PHY:
        Area = 3.57119 mm^2
        Peak Dynamic = 0.502831 W
        Subthreshold Leakage = 0.0848278 W
        Subthreshold Leakage with power gating = 0.0381725 W
        Gate Leakage = 0.00922179 W
        Runtime Dynamic = 6.61217 W

*****************************************************************************************
NIU:
      Area = 4.17435 mm^2
      Peak Dynamic = 0.54173 W
      Subthreshold Leakage = 0.169862 W
      Subthreshold Leakage with power gating = 0.076438 W
      Gate Leakage = 0.0507304 W
      Runtime Dynamic = 0.379211 W

*****************************************************************************************
PCIe:
      Area = 3.7129 mm^2
      Peak Dynamic = 0.862065 W
      Subthreshold Leakage = 0.203374 W
      Subthreshold Leakage with power gating = 0.0915182 W
      Gate Leakage = 0.0607388 W
      Runtime Dynamic = 0.603445 W

*****************************************************************************************
NOC
      Area = 14.7407 mm^2
      Peak Dynamic = 46.624 W
      Subthreshold Leakage = 4.27901 W
      Subthreshold Leakage with power gating = 1.91074 W
      Gate Leakage = 0.608796 W
      Runtime Dynamic = 2.914 W

      Router: 
        Area = 7.37033 mm^2
        Peak Dynamic = 23.312 W
        Subthreshold Leakage = 2.1395 W
        Subthreshold Leakage with power gating = 0.955371 W
        Gate Leakage = 0.304398 W
        Runtime Dynamic = 2.914 W

            Virtual Channel Buffer:
              Area = 1.35403 mm^2
              Peak Dynamic = 2.93704 W
              Subthreshold Leakage = 0.018514 W
              Subthreshold Leakage with power gating = 0.0009257 W
              Gate Leakage = 0.00183733 W
              Runtime Dynamic = 0.36713 W

            Crossbar:
              Area = 2.4079 mm^2
              Peak Dynamic = 20.2643 W
              Subthreshold Leakage = 2.12098 W
              Subthreshold Leakage with power gating = 0.954441 W
              Gate Leakage = 0.30256 W
              Runtime Dynamic = 2.53304 W

            Arbiter:
              Peak Dynamic = 0.110667 W
              Subthreshold Leakage = 9.38843e-06 W
              Subthreshold Leakage with power gating = 4.22479e-06 W
              Gate Leakage = 1.06434e-06 W
              Runtime Dynamic = 0.0138333 W

*****************************************************************************************
