McPAT (version 1.3 of Feb, 2015) is computing the target processor...
 
some value(s) of number_of_cores/number_of_L2s/number_of_L3s/number_of_NoCs is/are not correct!