McPAT (version 1.3 of Feb, 2015) is computing the target processor...
 

McPAT (version 1.3 of Feb, 2015) results (current print level is 1, please increase print level to see the details in components): 
*****************************************************************************************
  Technology 65 nm
  Using Long Channel Devices When Appropriate
  Interconnect metal projection= aggressive interconnect technology projection
  Core clock Rate(MHz) 3400

*****************************************************************************************
Processor: 
  Area = 151.769 mm^2
  Peak Power = 148.572 W
  Total Leakage = 22.1659 W
  Peak Dynamic = 126.406 W
  Subthreshold Leakage = 19.6193 W
  Gate Leakage = 2.54654 W
  Runtime Dynamic = 21.8127 W

  Total Cores: 4 cores 
  Device Type= ITRS high performance device type
    Area = 146.277 mm^2
    Peak Dynamic = 125.62 W
    Subthreshold Leakage = 19.5217 W
    Gate Leakage = 2.52838 W
    Runtime Dynamic = 20.464 W

  Total MCs: 1 Memory Controllers 
  Device Type= ITRS high performance device type
    Area = 5.49243 mm^2
    Peak Dynamic = 0.785591 W
    Subthreshold Leakage = 0.0976109 W
    Gate Leakage = 0.0181594 W
    Runtime Dynamic = 1.34866 W

*****************************************************************************************
